%chk=C:\Users\shiduyule\Desktop\CH4.chk
# opt freq hf/3-21g geom=connectivity

Title Card Required

0 1
 C                  1.88469646    0.99040214    0.00000000
 H                  2.24135089   -0.01840787    0.00000000
 H                  2.24136930    1.49480033    0.87365150
 H                  2.24136930    1.49480033   -0.87365150
 H                  0.81469646    0.99041532    0.00000000

 1 2 1.0 3 1.0 4 1.0 5 1.0
 2
 3
 4
 5

