%chk=C:\Users\shiduyule\Desktop\P3O93-.chk
# freq rhf/sto-3g* scrf=check guess=tcheck geom=(connectivity,allcheck)
genchk

P3O93-

-3 1
 P                 -0.90112212    1.45296856   -0.00786529
 O                 -1.44395763   -0.04555266   -0.33341304
 O                 -1.10833964    1.78698067    1.40321509
 P                 -0.80776226   -1.50687380   -0.00786943
 O                 -0.99344543   -1.85316179    1.40325047
 O                  0.76143711   -1.22773604   -0.33335006
 O                 -1.29487680   -2.41556936   -1.05508059
 O                 -1.44443137    2.32911775   -1.05516028
 P                  1.70889278    0.05390009   -0.00786024
 O                  0.68252605    1.27324864   -0.33332149
 O                  2.73933915    0.08640288   -1.05513274
 O                  2.10173281    0.06627960    1.40323318

 1 2 1.0 3 2.0 8 2.0 10 2.0
 2 4 1.0
 3
 4 5 2.0 6 1.0 7 2.0
 5
 6 9 1.0
 7
 8
 9 10 1.0 11 2.0 12 2.0
 10
 11
 12

