%chk=C:\Users\shiduyule\Desktop\HPO3.chk
# opt freq b3lyp/6-31g(d) geom=connectivity

HPO3

0 1
 P                 -1.36444296    0.00115085   -0.11967910
 O                  0.34555704    0.00115085   -0.11967910
 O                 -2.21944297   -1.47975259   -0.11967910
 O                 -2.21944297    1.48205429   -0.11967910
 H                 -2.38118990    1.75869874    0.78525503

 1 2 2.0 3 2.0 4 1.0
 2
 3
 4 5 1.0
 5

