%chk=C:\Users\shiduyule\Desktop\H4P2O7.chk
# hf/3-21g geom=connectivity

Title Card Required

0 1
 P                 -2.57126460   -0.32957066   -1.13185802
 P                 -1.67129549   -2.87516599   -1.13185802
 O                 -2.12128004   -1.60236832   -1.13185802
 O                 -2.00380867    0.47562073    0.26591185
 O                 -2.24130512   -3.68126068   -2.52806730
 O                 -1.99870365    0.47742555   -2.52650173
 H                 -2.52614579    1.26464056   -2.68044110
 O                 -4.28126174   -0.32954858   -1.13498418
 H                 -4.60202648    0.55806857   -0.95935449
 O                 -2.24130569   -3.68126041    0.26435119
 H                 -1.71986208   -4.47361339    0.41224752
 O                  0.03870451   -2.87518764   -1.13185739
 H                  0.35913991   -3.77816046   -1.19153362

 1 3 1.0 4 2.0 6 1.0 8 1.0
 2 3 1.0 5 2.0 10 1.0 12 1.0
 3
 4
 5
 6 7 1.0
 7
 8 9 1.0
 9
 10 11 1.0
 11
 12 13 1.0
 13

